44
para-N-H-opted.xyz
H     7.464363e-01  6.758558e-02 -9.838335e+00
S     2.020583e-01 -1.072560e+00 -9.367022e+00
H     1.098495e+00  1.340053e+00 -7.870388e+00
C     1.368162e-01 -5.846284e-01 -7.649198e+00
C     6.367339e-01  6.368461e-01 -7.182304e+00
H    -8.460093e-01 -2.422450e+00 -7.078445e+00
C    -4.399535e-01 -1.475029e+00 -6.734042e+00
C     5.590052e-01  9.562630e-01 -5.829218e+00
H     9.771192e-01  1.898603e+00 -5.486963e+00
C    -5.111851e-01 -1.146062e+00 -5.384204e+00
C    -1.394263e-02  7.508455e-02 -4.897518e+00
H    -9.893129e-01 -1.839564e+00 -4.698159e+00
H    -5.342934e-01  2.504407e+00 -3.812154e+00
C    -8.940570e-02  4.199531e-01 -3.456550e+00
C    -3.554255e-01  1.750479e+00 -3.051708e+00
H     3.384260e-01 -1.589228e+00 -2.771248e+00
C     1.015528e-01 -5.694320e-01 -2.481344e+00
C    -4.321210e-01  2.105382e+00 -1.710578e+00
H    -6.470015e-01  3.133447e+00 -1.430926e+00
C     2.209580e-02 -2.078167e-01 -1.137877e+00
C    -2.426308e-01  1.126352e+00 -7.280387e-01
N     1.811830e-01 -9.906351e-01 -4.320924e-03
H     3.839031e-01 -1.978079e+00 -4.320875e-03
C    -2.426304e-01  1.126352e+00  7.193969e-01
C     2.209585e-02 -2.078167e-01  1.129235e+00
H    -6.470008e-01  3.133447e+00  1.422285e+00
C    -4.321202e-01  2.105382e+00  1.701937e+00
C     1.015530e-01 -5.694321e-01  2.472702e+00
H     3.384263e-01 -1.589228e+00  2.762606e+00
C    -3.554245e-01  1.750479e+00  3.043066e+00
C    -8.940503e-02  4.199529e-01  3.447908e+00
H    -5.342924e-01  2.504407e+00  3.803513e+00
H    -9.893101e-01 -1.839566e+00  4.689517e+00
C    -1.394177e-02  7.508422e-02  4.888876e+00
C    -5.111830e-01 -1.146063e+00  5.375562e+00
H     9.771185e-01  1.898604e+00  5.478322e+00
C     5.590052e-01  9.562630e-01  5.820576e+00
C    -4.399509e-01 -1.475030e+00  6.725400e+00
H    -8.460050e-01 -2.422452e+00  7.069803e+00
C     6.367337e-01  6.368462e-01  7.173662e+00
C     1.368175e-01 -5.846290e-01  7.640556e+00
H     1.098493e+00  1.340054e+00  7.861747e+00
S     2.020583e-01 -1.072560e+00  9.358381e+00
H     7.464488e-01  6.758043e-02  9.829691e+00
